LTspice 24.0.9 for Windows
Circuit: **************************************************
Start Time: Thu May 21 14:02:19 2026
Fatal Error: No analysis request found.
